powerfulcases/cases/matpower/case89pegase/case89pegase.raw
0, 100, 33, 0, 0, 60  / 28-Jan-2026 21:53:30 - MATPOWER 8.1


    89, 'BUS 89      ',       380, 1,    0,    2, 1,    0.998636,    -2.72828,  1.1,  0.9,  1.1,  0.9
   228, 'BUS 228     ',       150, 1,    0,    2, 1,    1.052188,   -6.262599,  1.1,  0.9,  1.1,  0.9
   271, 'BUS 271     ',       150, 1,    0,    2, 1,    1.039303,   -7.776587,  1.1,  0.9,  1.1,  0.9
   317, 'BUS 317     ',       380, 1,    0,    2, 1,    1.052124,    7.796992,  1.1,  0.9,  1.1,  0.9
   659, 'BUS 659     ',       380, 1,    0,    2, 1,    1.051131,    7.757217,  1.1,  0.9,  1.1,  0.9
   792, 'BUS 792     ',       150, 1,    0,    2, 1,    1.034186,   -0.893204,  1.1,  0.9,  1.1,  0.9
   913, 'BUS 913     ',       380, 3,    0,    2, 1,    1.030951,           0,  1.1,  0.9,  1.1,  0.9
   955, 'BUS 955     ',       150, 1,    0,    2, 1,    1.002466,   -9.134162,  1.1,  0.9,  1.1,  0.9
  1037, 'BUS 1037    ',       380, 1,    0,    2, 1,    1.052997,    6.607316,  1.1,  0.9,  1.1,  0.9
  1163, 'BUS 1163    ',       380, 1,    0,    2, 1,    1.009762,      0.4517,  1.1,  0.9,  1.1,  0.9
  1317, 'BUS 1317    ',       380, 1,    0,    2, 1,    1.038584,    4.859365,  1.1,  0.9,  1.1,  0.9
  1367, 'BUS 1367    ',       380, 1,    0,    2, 1,    1.023381,    1.554555,  1.1,  0.9,  1.1,  0.9
  1445, 'BUS 1445    ',       220, 1,    0,    2, 1,    1.034571,    1.564741,  1.1,  0.9,  1.1,  0.9
  1531, 'BUS 1531    ',       150, 1,    0,    2, 1,    1.018598,   -9.561918,  1.1,  0.9,  1.1,  0.9
  1579, 'BUS 1579    ',       380, 1,    0,    2, 1,    1.006544,   -3.372817,  1.1,  0.9,  1.1,  0.9
  1611, 'BUS 1611    ',       150, 1,    0,    2, 1,    1.046304,   -7.257075,  1.1,  0.9,  1.1,  0.9
  1616, 'BUS 1616    ',       380, 1,    0,    2, 1,     1.00541,   -2.075628,  1.1,  0.9,  1.1,  0.9
  1676, 'BUS 1676    ',       380, 1,    0,    2, 1,    1.009368,    0.392255,  1.1,  0.9,  1.1,  0.9
  1815, 'BUS 1815    ',       220, 1,    0,    2, 1,    1.057772,    1.929189,  1.1,  0.9,  1.1,  0.9
  1968, 'BUS 1968    ',       150, 1,    0,    2, 1,     1.02308,   -9.077175,  1.1,  0.9,  1.1,  0.9
  2107, 'BUS 2107    ',       380, 2,    0,    2, 1,     1.03888,    1.910737,  1.1,  0.9,  1.1,  0.9
  2154, 'BUS 2154    ',       380, 1,    0,    2, 1,    1.038292,   13.048352,  1.1,  0.9,  1.1,  0.9
  2168, 'BUS 2168    ',       150, 1,    0,    2, 1,    1.016376,  -10.987335,  1.1,  0.9,  1.1,  0.9
  2267, 'BUS 2267    ',       380, 2,    0,    2, 1,    1.038741,   13.143978,  1.1,  0.9,  1.1,  0.9
  2268, 'BUS 2268    ',       380, 1,    0,    2, 1,     0.99293,    -3.22815,  1.1,  0.9,  1.1,  0.9
  2299, 'BUS 2299    ',       150, 1,    0,    2, 1,    1.041449,    -9.18839,  1.1,  0.9,  1.1,  0.9
  2441, 'BUS 2441    ',       380, 1,    0,    2, 1,    0.991005,   -2.851769,  1.1,  0.9,  1.1,  0.9
  2449, 'BUS 2449    ',       150, 1,    0,    2, 1,    1.086934,   -3.975972,  1.1,  0.9,  1.1,  0.9
  2520, 'BUS 2520    ',       380, 1,    0,    2, 1,    0.999733,   -2.864712,  1.1,  0.9,  1.1,  0.9
  2870, 'BUS 2870    ',       380, 1,    0,    2, 1,    1.052997,    6.607314,  1.1,  0.9,  1.1,  0.9
  2908, 'BUS 2908    ',       150, 1,    0,    2, 1,    1.022415,   -8.627044,  1.1,  0.9,  1.1,  0.9
  3097, 'BUS 3097    ',       380, 1,    0,    2, 1,    1.048722,     6.05208,  1.1,  0.9,  1.1,  0.9
  3242, 'BUS 3242    ',       150, 1,    0,    2, 1,    1.054504,   -7.413077,  1.1,  0.9,  1.1,  0.9
  3279, 'BUS 3279    ',       150, 1,    0,    2, 1,    1.034258,    -0.85281,  1.1,  0.9,  1.1,  0.9
  3493, 'BUS 3493    ',       150, 1,    0,    2, 1,    1.040629,    -8.48147,  1.1,  0.9,  1.1,  0.9
  3506, 'BUS 3506    ',       150, 1,    0,    2, 1,    1.002708,   -9.100433,  1.1,  0.9,  1.1,  0.9
  3659, 'BUS 3659    ',       380, 2,    0,    2, 1,     1.05217,    3.046806,  1.1,  0.9,  1.1,  0.9
  4014, 'BUS 4014    ',       150, 1,    0,    2, 1,    1.033972,  -11.212105,  1.1,  0.9,  1.1,  0.9
  4423, 'BUS 4423    ',       150, 1,    0,    2, 1,    1.041509,    -9.18519,  1.1,  0.9,  1.1,  0.9
  4427, 'BUS 4427    ',       150, 1,    0,    2, 1,    1.036884,   -8.989673,  1.1,  0.9,  1.1,  0.9
  4495, 'BUS 4495    ',       150, 1,    0,    2, 1,    1.038496,   -8.944438,  1.1,  0.9,  1.1,  0.9
  4586, 'BUS 4586    ',       150, 2,    0,    2, 1,    1.047701,   -8.937472,  1.1,  0.9,  1.1,  0.9
  4665, 'BUS 4665    ',       150, 1,    0,    2, 1,    1.038909,   -9.573486,  1.1,  0.9,  1.1,  0.9
  4929, 'BUS 4929    ',       380, 1,    0,    2, 1,    1.052995,    6.607328,  1.1,  0.9,  1.1,  0.9
  5097, 'BUS 5097    ',       150, 2,    0,    2, 1,     1.05444,   -7.409995,  1.1,  0.9,  1.1,  0.9
  5155, 'BUS 5155    ',       150, 1,    0,    2, 1,    1.030998,   -8.936324,  1.1,  0.9,  1.1,  0.9
  5210, 'BUS 5210    ',       220, 1,    0,    2, 1,    1.032893,    1.841903,  1.1,  0.9,  1.1,  0.9
  5416, 'BUS 5416    ',       380, 1,    0,    2, 1,    1.038395,   13.368566,  1.1,  0.9,  1.1,  0.9
  5509, 'BUS 5509    ',       380, 1,    0,    2, 1,    0.998445,   -4.250016,  1.1,  0.9,  1.1,  0.9
  5587, 'BUS 5587    ',       150, 1,    0,    2, 1,    1.040763,   -8.453527,  1.1,  0.9,  1.1,  0.9
  5762, 'BUS 5762    ',       380, 1,    0,    2, 1,    1.042316,    2.397232,  1.1,  0.9,  1.1,  0.9
  5776, 'BUS 5776    ',       150, 1,    0,    2, 1,    1.074342,   -5.370611,  1.1,  0.9,  1.1,  0.9
  5848, 'BUS 5848    ',       380, 1,    0,    2, 1,    1.009361,   -3.019939,  1.1,  0.9,  1.1,  0.9
  5996, 'BUS 5996    ',       380, 1,    0,    2, 1,    1.042267,    2.397462,  1.1,  0.9,  1.1,  0.9
  6069, 'BUS 6069    ',       380, 1,    0,    2, 1,    0.977261,   -4.165509,  1.1,  0.9,  1.1,  0.9
  6233, 'BUS 6233    ',       380, 2,    0,    2, 1,    1.052521,    7.854104,  1.1,  0.9,  1.1,  0.9
  6293, 'BUS 6293    ',       380, 1,    0,    2, 1,    0.994291,   -2.463618,  1.1,  0.9,  1.1,  0.9
  6542, 'BUS 6542    ',       220, 1,    0,    2, 1,    1.070142,   -0.548851,  1.1,  0.9,  1.1,  0.9
  6704, 'BUS 6704    ',       380, 1,    0,    2, 1,    1.003492,   -1.525293,  1.1,  0.9,  1.1,  0.9
  6798, 'BUS 6798    ',       380, 2,    0,    2, 1,    1.053791,    8.135392,  1.1,  0.9,  1.1,  0.9
  6826, 'BUS 6826    ',       150, 1,    0,    2, 1,    1.076556,   -5.786044,  1.1,  0.9,  1.1,  0.9
  6833, 'BUS 6833    ',       380, 1,    0,    2, 1,    0.968382,   -4.882064,  1.1,  0.9,  1.1,  0.9
  7051, 'BUS 7051    ',       380, 1,    0,    2, 1,    1.014089,    1.515243,  1.1,  0.9,  1.1,  0.9
  7180, 'BUS 7180    ',       380, 1,    0,    2, 1,    0.970985,   -4.970482,  1.1,  0.9,  1.1,  0.9
  7279, 'BUS 7279    ',       150, 2,    0,    2, 1,    1.033972,  -11.212105,  1.1,  0.9,  1.1,  0.9
  7526, 'BUS 7526    ',       380, 1,    0,    2, 1,    1.015361,    8.176427,  1.1,  0.9,  1.1,  0.9
  7563, 'BUS 7563    ',       150, 1,    0,    2, 1,    1.040779,  -11.087591,  1.1,  0.9,  1.1,  0.9
  7637, 'BUS 7637    ',       380, 1,    0,    2, 1,    1.035715,   19.538796,  1.1,  0.9,  1.1,  0.9
  7762, 'BUS 7762    ',       380, 1,    0,    2, 1,    1.010704,   -1.708563,  1.1,  0.9,  1.1,  0.9
  7829, 'BUS 7829    ',       220, 1,    0,    2, 1,    1.061047,   -2.764068,  1.1,  0.9,  1.1,  0.9
  7960, 'BUS 7960    ',       380, 2,    0,    2, 1,    1.052291,    7.889157,  1.1,  0.9,  1.1,  0.9
  8103, 'BUS 8103    ',       150, 1,    0,    2, 1,    1.004552,    0.141171,  1.1,  0.9,  1.1,  0.9
  8179, 'BUS 8179    ',       380, 1,    0,    2, 1,     1.00098,   -3.338785,  1.1,  0.9,  1.1,  0.9
  8181, 'BUS 8181    ',       380, 1,    0,    2, 1,    1.002201,   -2.957365,  1.1,  0.9,  1.1,  0.9
  8229, 'BUS 8229    ',       150, 1,    0,    2, 1,    1.074342,   -5.370611,  1.1,  0.9,  1.1,  0.9
  8329, 'BUS 8329    ',       380, 1,    0,    2, 1,    1.044426,    7.171947,  1.1,  0.9,  1.1,  0.9
  8335, 'BUS 8335    ',       150, 1,    0,    2, 1,    1.018566,   -9.585336,  1.1,  0.9,  1.1,  0.9
  8420, 'BUS 8420    ',       150, 1,    0,    2, 1,    1.046629,   -7.203894,  1.1,  0.9,  1.1,  0.9
  8574, 'BUS 8574    ',       380, 1,    0,    2, 1,    1.003438,   -1.910009,  1.1,  0.9,  1.1,  0.9
  8581, 'BUS 8581    ',       380, 1,    0,    2, 1,    1.039591,    5.776595,  1.1,  0.9,  1.1,  0.9
  8605, 'BUS 8605    ',       380, 2,    0,    2, 1,    1.023822,    1.617834,  1.1,  0.9,  1.1,  0.9
  8847, 'BUS 8847    ',       380, 1,    0,    2, 1,    1.012216,    1.209962,  1.1,  0.9,  1.1,  0.9
  8921, 'BUS 8921    ',       380, 1,    0,    2, 1,     1.00666,   -1.113996,  1.1,  0.9,  1.1,  0.9
  8964, 'BUS 8964    ',       150, 1,    0,    2, 1,    1.016233,   -11.01836,  1.1,  0.9,  1.1,  0.9
  9024, 'BUS 9024    ',       380, 1,    0,    2, 1,    1.057806,    3.596649,  1.1,  0.9,  1.1,  0.9
  9025, 'BUS 9025    ',       380, 1,    0,    2, 1,    1.004762,   -2.614968,  1.1,  0.9,  1.1,  0.9
  9064, 'BUS 9064    ',       380, 1,    0,    2, 1,    1.004902,   -2.063811,  1.1,  0.9,  1.1,  0.9
  9192, 'BUS 9192    ',       150, 1,    0,    2, 1,    1.024174,   -8.846156,  1.1,  0.9,  1.1,  0.9
  9239, 'BUS 9239    ',       380, 2,    0,    2, 1,    1.052319,    7.893501,  1.1,  0.9,  1.1,  0.9
0 / END OF BUS DATA, BEGIN LOAD DATA
   228,  1, 1,    0,    2,    -23.43,      57.4, 0, 0, 0, 0, 1, 1, 0
   271,  1, 1,    0,    2,      96.7,      26.8, 0, 0, 0, 0, 1, 1, 0
   792,  1, 1,    0,    2,     295.3,      41.9, 0, 0, 0, 0, 1, 1, 0
   955,  1, 1,    0,    2,     244.2,     152.7, 0, 0, 0, 0, 1, 1, 0
  1317,  1, 1,    0,    2,     149.3,        -2, 0, 0, 0, 0, 1, 1, 0
  1445,  1, 1,    0,    2,     238.4,     210.9, 0, 0, 0, 0, 1, 1, 0
  1611,  1, 1,    0,    2,     274.1,     166.5, 0, 0, 0, 0, 1, 1, 0
  1815,  1, 1,    0,    2,     63.66,       9.7, 0, 0, 0, 0, 1, 1, 0
  1968,  1, 1,    0,    2,     118.4,       137, 0, 0, 0, 0, 1, 1, 0
  2154,  1, 1,    0,    2,   -357.45,     33.05, 0, 0, 0, 0, 1, 1, 0
  2168,  1, 1,    0,    2,       8.6,     -1.48, 0, 0, 0, 0, 1, 1, 0
  2299,  1, 1,    0,    2,     402.1,     110.2, 0, 0, 0, 0, 1, 1, 0
  2449,  1, 1,    0,    2,     301.9,    -103.2, 0, 0, 0, 0, 1, 1, 0
  2908,  1, 1,    0,    2,     203.8,        61, 0, 0, 0, 0, 1, 1, 0
  3097,  1, 1,    0,    2,    361.91,      3.66, 0, 0, 0, 0, 1, 1, 0
  3242,  1, 1,    0,    2,     296.1,      82.3, 0, 0, 0, 0, 1, 1, 0
  3493,  1, 1,    0,    2,     226.3,      61.1, 0, 0, 0, 0, 1, 1, 0
  4427,  1, 1,    0,    2,     296.8,      77.7, 0, 0, 0, 0, 1, 1, 0
  4495,  1, 1,    0,    2,     336.3,     104.4, 0, 0, 0, 0, 1, 1, 0
  4665,  1, 1,    0,    2,     390.5,      62.5, 0, 0, 0, 0, 1, 1, 0
  4929,  1, 1,    0,    2,        37,       8.7, 0, 0, 0, 0, 1, 1, 0
  5155,  1, 1,    0,    2,     411.3,       168, 0, 0, 0, 0, 1, 1, 0
  5210,  1, 1,    0,    2,    347.61,     74.37, 0, 0, 0, 0, 1, 1, 0
  5776,  1, 1,    0,    2,     222.7,      80.5, 0, 0, 0, 0, 1, 1, 0
  6069,  1, 1,    0,    2,   -456.66,   -131.97, 0, 0, 0, 0, 1, 1, 0
  6542,  1, 1,    0,    2,    355.98,   -147.98, 0, 0, 0, 0, 1, 1, 0
  6826,  1, 1,    0,    2,     326.9,     -82.3, 0, 0, 0, 0, 1, 1, 0
  7526,  1, 1,    0,    2,   -179.73,    -63.08, 0, 0, 0, 0, 1, 1, 0
  7563,  1, 1,    0,    2,     531.7,     -12.8, 0, 0, 0, 0, 1, 1, 0
  7829,  1, 1,    0,    2,   -114.36,     30.04, 0, 0, 0, 0, 1, 1, 0
  8103,  1, 1,    0,    2,     39.34,     -10.7, 0, 0, 0, 0, 1, 1, 0
  8335,  1, 1,    0,    2,    637.92,    139.57, 0, 0, 0, 0, 1, 1, 0
  8581,  1, 1,    0,    2,  -1299.13,   -140.85, 0, 0, 0, 0, 1, 1, 0
  8964,  1, 1,    0,    2,    925.91,    147.97, 0, 0, 0, 0, 1, 1, 0
  9192,  1, 1,    0,    2,     17.92,      23.3, 0, 0, 0, 0, 1, 1, 0
0 / END OF LOAD DATA, BEGIN FIXED SHUNT DATA
    89, 1, 1, 0.199111,  4.5306
   317, 1, 1, 0.045946, -1.82203
   659, 1, 1, 0.174507, 73.9771
  1037, 1, 1,       0,    0.55
  1163, 1, 1,       0,   16.04
  1317, 1, 1,       0,   20.77
  1367, 1, 1, 0.175687, -1.5094
  1579, 1, 1,       0,   16.56
  1611, 1, 1,       0,    0.56
  1616, 1, 1,       0,   14.45
  1676, 1, 1, 0.171586, -1.4632
  2154, 1, 1,    0.29,    -5.6
  2268, 1, 1, 0.183167,  22.675
  2441, 1, 1, 0.242534, 1.14358
  2520, 1, 1, 0.057433, 3.80797
  2870, 1, 1,       0,    0.62
  2908, 1, 1,       0,     0.6
  3097, 1, 1,       0,    9.39
  3506, 1, 1,       0,     0.6
  4423, 1, 1,       0,    0.33
  4929, 1, 1, 0.070441, 50.9139
  5416, 1, 1,       0,   25.13
  5509, 1, 1, 0.314057, 17.2965
  5587, 1, 1,       0,    0.33
  5762, 1, 1,       0,    2.23
  5848, 1, 1,    0.29,   -0.42
  5996, 1, 1, 0.164188, 4.02383
  6069, 1, 1, 0.285753, 35.3711
  6293, 1, 1,       0,   33.66
  6704, 1, 1, 0.211099, 0.672832
  6833, 1, 1, 0.246363, 4.84128
  7051, 1, 1,       0,   21.19
  7180, 1, 1, 0.234234, 4.22072
  7637, 1, 1,    0.29,    6.18
  7762, 1, 1, 0.304243, 48.4534
  8179, 1, 1, 0.194464, 19.1468
  8181, 1, 1, 0.210824,  6.6206
  8329, 1, 1, 0.149712, 2.04987
  8574, 1, 1, 0.447839, 20.9947
  8847, 1, 1, 0.18076, -0.881251
  8921, 1, 1,       0,   16.37
  9024, 1, 1, 0.141019,  25.246
  9025, 1, 1, 0.205903,  3.0768
  9064, 1, 1,       0,   15.26
0 / END OF FIXED SHUNT DATA, BEGIN GENERATOR DATA
   913,  1,    1249.4,    684.16,    772.11,   -269.94, 1.030951, 0,     100, 0, 1, 0, 0, 1, 1, 100,      1700,    566.67, 1, 1, 0, 1, 0, 1, 0, 1, 0, 1
  2107,  1,    1269.4,    558.16,     661.9,   -257.62,  1.03888, 0,     100, 0, 1, 0, 0, 1, 1, 100,      1500,       500, 1, 1, 0, 1, 0, 1, 0, 1, 0, 1
  2267,  1,       362,    200.02,    228.16,    -78.83, 1.038741, 0,     100, 0, 1, 0, 0, 1, 1, 100,       500,    166.67, 1, 1, 0, 1, 0, 1, 0, 1, 0, 1
  3659,  1,    1097.4,    689.53,    943.64,   -282.01,  1.05217, 0,     100, 0, 1, 0, 0, 1, 1, 100,      2000,    666.67, 1, 1, 0, 1, 0, 1, 0, 1, 0, 1
  4586,  1,    -545.7,     41.95,     92.96,    -29.81, 1.047701, 0,     100, 0, 1, 0, 0, 1, 1, 100,       100,    -727.6, 1, 1, 0, 1, 0, 1, 0, 1, 0, 1
  5097,  1,      21.1,      2.52,      8.91,     -4.11,  1.05444, 0,     100, 0, 1, 0, 0, 1, 1, 100,     21.23,      7.08, 1, 1, 0, 1, 0, 1, 0, 1, 0, 1
  6233,  1,     879.6,    368.28,    545.68,   -189.97, 1.052521, 0,     100, 0, 1, 0, 0, 1, 1, 100,      1200,       400, 1, 1, 0, 1, 0, 1, 0, 1, 0, 1
  6798,  1,     949.7,    272.74,    429.61,   -183.48, 1.053791, 0,     100, 0, 1, 0, 0, 1, 1, 100,      1000,    333.33, 1, 1, 0, 1, 0, 1, 0, 1, 0, 1
  7279,  1,    -681.7,      5.38,     14.78,     -6.64, 1.033972, 0,     100, 0, 1, 0, 0, 1, 1, 100,       100,   -908.93, 1, 1, 0, 1, 0, 1, 0, 1, 0, 1
  7960,  1,       419,    153.39,     274.2,    -93.22, 1.052291, 0,     100, 0, 1, 0, 0, 1, 1, 100,       600,       200, 1, 1, 0, 1, 0, 1, 0, 1, 0, 1
  8605,  1,       427,    170.21,    273.94,    -93.65, 1.023822, 0,     100, 0, 1, 0, 0, 1, 1, 100,       600,       200, 1, 1, 0, 1, 0, 1, 0, 1, 0, 1
  9239,  1,       419,    153.17,     274.2,    -93.22, 1.052319, 0,     100, 0, 1, 0, 0, 1, 1, 100,       600,       200, 1, 1, 0, 1, 0, 1, 0, 1, 0, 1
0 / END OF GENERATOR DATA, BEGIN BRANCH DATA
  3097,    659, 1,  0.00073,  0.00905,        0,    1205,       0,       0, 0, 0, 0, 0, 1, 1, 0, 1, 1, 0, 1, 0, 1, 0, 1
  9024,   4929, 1,  0.00192,  0.02296,        0,     909,       0,       0, 0, 0, 0, 0, 1, 1, 0, 1, 1, 0, 1, 0, 1, 0, 1
  1815,   6542, 1,  0.01431,  0.05899,        0,       0,       0,       0, 0, 0, 0, 0, 1, 1, 0, 1, 1, 0, 1, 0, 1, 0, 1
  6542,   1445, 1,  0.02607,  0.07168,        0,       0,       0,       0, 0, 0, 0, 0, 1, 1, 0, 1, 1, 0, 1, 0, 1, 0, 1
  6069,   6833, 1,  0.00054,  0.00465,        0,    1600,       0,       0, 0, 0, 0, 0, 1, 1, 0, 1, 1, 0, 1, 0, 1, 0, 1
  6069,   2268, 1,  0.00126,  0.01124,        0,    1633,       0,       0, 0, 0, 0, 0, 1, 1, 0, 1, 1, 0, 1, 0, 1, 0, 1
  6069,   7180, 1,  0.00048,  0.00527,        0,    1567,       0,       0, 0, 0, 0, 0, 1, 1, 0, 1, 1, 0, 1, 0, 1, 0, 1
  6069,   6293, 1,  0.00082,  0.00938,        0,    1600,       0,       0, 0, 0, 0, 0, 1, 1, 0, 1, 1, 0, 1, 0, 1, 0, 1
  1968,   9192, 1,  0.00028, 0.003502,        0,       0,       0,       0, 0, 0, 0, 0, 1, 1, 0, 1, 1, 0, 1, 0, 1, 0, 1
  1968,   3493, 1, 0.691467, 4.414711,        0,       0,       0,       0, 0, 0, 0, 0, 1, 1, 0, 1, 1, 0, 1, 0, 1, 0, 1
  1968,    955, 1,  0.02004,   0.0916,        0,       0,       0,       0, 0, 0, 0, 0, 1, 1, 0, 1, 1, 0, 1, 0, 1, 0, 1
  1968,    228, 1, 0.841911, 4.768444,        0,       0,       0,       0, 0, 0, 0, 0, 1, 1, 0, 1, 1, 0, 1, 0, 1, 0, 1
  1968,   6826, 1,    0.026,  0.08948,        0,       0,       0,       0, 0, 0, 0, 0, 1, 1, 0, 1, 1, 0, 1, 0, 1, 0, 1
  1968,   8964, 1, 0.002631, 0.011889,        0,     319,       0,       0, 0, 0, 0, 0, 1, 1, 0, 1, 1, 0, 1, 0, 1, 0, 1
  1968,   5776, 1,   0.7232,    1.944,        0,       0,       0,       0, 0, 0, 0, 0, 1, 1, 0, 1, 1, 0, 1, 0, 1, 0, 1
  9192,    955, 1, 0.156169, 0.546756,        0,       0,       0,       0, 0, 0, 0, 0, 1, 1, 0, 1, 1, 0, 1, 0, 1, 0, 1
  9192,   6826, 1, 0.168809, 0.580622,        0,       0,       0,       0, 0, 0, 0, 0, 1, 1, 0, 1, 1, 0, 1, 0, 1, 0, 1
  9192,   8964, 1, 0.019222, 0.068209,        0,       0,       0,       0, 0, 0, 0, 0, 1, 1, 0, 1, 1, 0, 1, 0, 1, 0, 1
  8574,   1616, 1,  0.00039,  0.00386,        0,    1435,       0,       0, 0, 0, 0, 0, 1, 1, 0, 1, 1, 0, 1, 0, 1, 0, 1
  8574,   1163, 1,  0.00096,  0.01138,        0,    1468,       0,       0, 0, 0, 0, 0, 1, 1, 0, 1, 1, 0, 1, 0, 1, 0, 1
  8574,   9064, 1,  0.00037,  0.00325,        0,    1435,       0,       0, 0, 0, 0, 0, 1, 1, 0, 1, 1, 0, 1, 0, 1, 0, 1
  8574,   8921, 1,  0.00029,  0.00339,        0,    1600,       0,       0, 0, 0, 0, 0, 1, 1, 0, 1, 1, 0, 1, 0, 1, 0, 1
  3493,   2299, 1, 0.009458, 0.158871,        0,       0,       0,       0, 0, 0, 0, 0, 1, 1, 0, 1, 1, 0, 1, 0, 1, 0, 1
  2299,   4423, 1,        0, 0.000222,        0,       0,       0,       0, 0, 0, 0, 0, 1, 1, 0, 1, 1, 0, 1, 0, 1, 0, 1
  6826,   2299, 1, 0.312951, 7.130667,        0,       0,       0,       0, 0, 0, 0, 0, 1, 1, 0, 1, 1, 0, 1, 0, 1, 0, 1
  7563,   2299, 1, 0.247649, 1.075911,        0,       0,       0,       0, 0, 0, 0, 0, 1, 1, 0, 1, 1, 0, 1, 0, 1, 0, 1
  4427,   2299, 1,  0.06056,  0.18612,        0,       0,       0,       0, 0, 0, 0, 0, 1, 1, 0, 1, 1, 0, 1, 0, 1, 0, 1
  8335,   2299, 1, 2.142489, 4.347733,        0,       0,       0,       0, 0, 0, 0, 0, 1, 1, 0, 1, 1, 0, 1, 0, 1, 0, 1
  5155,   2299, 1,  0.07132, 1.068889,        0,       0,       0,       0, 0, 0, 0, 0, 1, 1, 0, 1, 1, 0, 1, 0, 1, 0, 1
   271,   2299, 1,  0.02268,  0.08652,        0,       0,       0,       0, 0, 0, 0, 0, 1, 1, 0, 1, 1, 0, 1, 0, 1, 0, 1
  2449,   2299, 1, 2.007778, 4.494222,        0,       0,       0,       0, 0, 0, 0, 0, 1, 1, 0, 1, 1, 0, 1, 0, 1, 0, 1
  4665,   2299, 1, 0.006178, 0.028938,        0,       0,       0,       0, 0, 0, 0, 0, 1, 1, 0, 1, 1, 0, 1, 0, 1, 0, 1
  4495,   2299, 1, 0.027711, 0.260951,        0,       0,       0,       0, 0, 0, 0, 0, 1, 1, 0, 1, 1, 0, 1, 0, 1, 0, 1
  3493,   5587, 1,        0, 0.000222,        0,     319,       0,       0, 0, 0, 0, 0, 1, 1, 0, 1, 1, 0, 1, 0, 1, 0, 1
  4586,   3493, 1,  0.00692, 0.337378,        0,       0,       0,       0, 0, 0, 0, 0, 1, 1, 0, 1, 1, 0, 1, 0, 1, 0, 1
   228,   3493, 1, 0.025991,  0.10048,        0,       0,       0,       0, 0, 0, 0, 0, 1, 1, 0, 1, 1, 0, 1, 0, 1, 0, 1
  6826,   3493, 1, 0.083711,   0.8648,        0,       0,       0,       0, 0, 0, 0, 0, 1, 1, 0, 1, 1, 0, 1, 0, 1, 0, 1
  7563,   3493, 1, 0.447378, 1.862089,        0,       0,       0,       0, 0, 0, 0, 0, 1, 1, 0, 1, 1, 0, 1, 0, 1, 0, 1
  4427,   3493, 1, 0.062169, 0.153191,        0,       0,       0,       0, 0, 0, 0, 0, 1, 1, 0, 1, 1, 0, 1, 0, 1, 0, 1
  8335,   3493, 1, 2.492533, 4.725778,        0,       0,       0,       0, 0, 0, 0, 0, 1, 1, 0, 1, 1, 0, 1, 0, 1, 0, 1
  5155,   3493, 1, 0.020271,  0.08244,        0,       0,       0,       0, 0, 0, 0, 0, 1, 1, 0, 1, 1, 0, 1, 0, 1, 0, 1
   271,   3493, 1,  0.11416, 1.777556,        0,       0,       0,       0, 0, 0, 0, 0, 1, 1, 0, 1, 1, 0, 1, 0, 1, 0, 1
  5776,   3493, 1, 0.574978, 2.992578,        0,       0,       0,       0, 0, 0, 0, 0, 1, 1, 0, 1, 1, 0, 1, 0, 1, 0, 1
  2449,   3493, 1, 1.887067, 4.964444,        0,       0,       0,       0, 0, 0, 0, 0, 1, 1, 0, 1, 1, 0, 1, 0, 1, 0, 1
  4665,   3493, 1, 0.250778, 0.817422,        0,       0,       0,       0, 0, 0, 0, 0, 1, 1, 0, 1, 1, 0, 1, 0, 1, 0, 1
  4495,   3493, 1, 0.007049, 0.029609,        0,       0,       0,       0, 0, 0, 0, 0, 1, 1, 0, 1, 1, 0, 1, 0, 1, 0, 1
  5587,   4586, 1, 0.003049, 0.020218,        0,       0,       0,       0, 0, 0, 0, 0, 1, 1, 0, 1, 1, 0, 1, 0, 1, 0, 1
  4423,   4586, 1, 0.002911, 0.020262,        0,       0,       0,       0, 0, 0, 0, 0, 1, 1, 0, 1, 1, 0, 1, 0, 1, 0, 1
  4929,   2870, 1,    4e-05,  0.00041,        0,     777,       0,       0, 0, 0, 0, 0, 1, 1, 0, 1, 1, 0, 1, 0, 1, 0, 1
  4929,    659, 1,  0.00087,  0.01087,        0,    1303,       0,       0, 0, 0, 0, 0, 1, 1, 0, 1, 1, 0, 1, 0, 1, 0, 1
  4929,   1037, 1,    4e-05,  0.00046,        0,     777,       0,       0, 0, 0, 0, 0, 1, 1, 0, 1, 1, 0, 1, 0, 1, 0, 1
  4929,    659, 2,  0.00095,  0.00924,        0,    1501,       0,       0, 0, 0, 0, 0, 1, 1, 0, 1, 1, 0, 1, 0, 1, 0, 1
  1815,   5210, 1, 0.528017, 2.636157,        0,       0,       0,       0, 0, 0, 0, 0, 1, 1, 0, 1, 1, 0, 1, 0, 1, 0, 1
  1815,   1445, 1, 0.032031, 0.128659,        0,       0,       0,       0, 0, 0, 0, 0, 1, 1, 0, 1, 1, 0, 1, 0, 1, 0, 1
  1616,   7762, 1,  0.00044,   0.0032,        0,    1665,       0,       0, 0, 0, 0, 0, 1, 1, 0, 1, 1, 0, 1, 0, 1, 0, 1
  1616,   2520, 1,  0.00046,  0.00489,        0,    1731,       0,       0, 0, 0, 0, 0, 1, 1, 0, 1, 1, 0, 1, 0, 1, 0, 1
  9064,   7762, 1,   0.0003,  0.00352,        0,    1600,       0,       0, 0, 0, 0, 0, 1, 1, 0, 1, 1, 0, 1, 0, 1, 0, 1
  9064,     89, 1,  0.00051,  0.00454,        0,    1665,       0,       0, 0, 0, 0, 0, 1, 1, 0, 1, 1, 0, 1, 0, 1, 0, 1
  1317,    659, 1,  0.00068,  0.00746,        0,    1633,       0,       0, 0, 0, 0, 0, 1, 1, 0, 1, 1, 0, 1, 0, 1, 0, 1
  1317,   8605, 1,  0.00093,  0.01022,        0,    1764,       0,       0, 0, 0, 0, 0, 1, 1, 0, 1, 1, 0, 1, 0, 1, 0, 1
  8605,   1367, 1,    4e-05,   0.0004,        0,    1501,       0,       0, 0, 0, 0, 0, 1, 1, 0, 1, 1, 0, 1, 0, 1, 0, 1
  8605,   8921, 1,  0.00078,  0.00698,        0,    1764,       0,       0, 0, 0, 0, 0, 1, 1, 0, 1, 1, 0, 1, 0, 1, 0, 1
  1163,   1676, 1,    4e-05,  0.00043,        0,    1600,       0,       0, 0, 0, 0, 0, 1, 1, 0, 1, 1, 0, 1, 0, 1, 0, 1
  1163,   7051, 1,  0.00025,  0.00309,        0,    1698,       0,       0, 0, 0, 0, 0, 1, 1, 0, 1, 1, 0, 1, 0, 1, 0, 1
   913,   7762, 1,  0.00047,  0.00538,        0,    1633,       0,       0, 0, 0, 0, 0, 1, 1, 0, 1, 1, 0, 1, 0, 1, 0, 1
  2107,   7762, 1,  0.00046,  0.00548,        0,    1764,       0,       0, 0, 0, 0, 0, 1, 1, 0, 1, 1, 0, 1, 0, 1, 0, 1
  2107,   5996, 1,  0.00016,  0.00173,        0,    1863,       0,       0, 0, 0, 0, 0, 1, 1, 0, 1, 1, 0, 1, 0, 1, 0, 1
  2107,   6293, 1,  0.00166,  0.01471,        0,    1764,       0,       0, 0, 0, 0, 0, 1, 1, 0, 1, 1, 0, 1, 0, 1, 0, 1
   913,   7762, 2,  0.00051,  0.00512,        0,    1797,       0,       0, 0, 0, 0, 0, 1, 1, 0, 1, 1, 0, 1, 0, 1, 0, 1
  6704,   8921, 1,  0.00021,  0.00248,        0,    1534,       0,       0, 0, 0, 0, 0, 1, 1, 0, 1, 1, 0, 1, 0, 1, 0, 1
   228,   4586, 1, 0.004391, 0.021689,        0,     306,       0,       0, 0, 0, 0, 0, 1, 1, 0, 1, 1, 0, 1, 0, 1, 0, 1
  2441,   6293, 1,  0.00024,  0.00289,        0,    1665,       0,       0, 0, 0, 0, 0, 1, 1, 0, 1, 1, 0, 1, 0, 1, 0, 1
   955,   3506, 1,        0, 0.000222,        0,     358,       0,       0, 0, 0, 0, 0, 1, 1, 0, 1, 1, 0, 1, 0, 1, 0, 1
   955,   8964, 1,  0.01788, 0.100471,        0,       0,       0,       0, 0, 0, 0, 0, 1, 1, 0, 1, 1, 0, 1, 0, 1, 0, 1
  3506,   2908, 1, 0.006458, 0.039982,        0,       0,       0,       0, 0, 0, 0, 0, 1, 1, 0, 1, 1, 0, 1, 0, 1, 0, 1
   228,   6826, 1, 0.106151, 0.993333,        0,       0,       0,       0, 0, 0, 0, 0, 1, 1, 0, 1, 1, 0, 1, 0, 1, 0, 1
   228,   5776, 1, 0.699778, 3.232311,        0,       0,       0,       0, 0, 0, 0, 0, 1, 1, 0, 1, 1, 0, 1, 0, 1, 0, 1
  8964,   6826, 1, 0.257058,  0.43592,        0,       0,       0,       0, 0, 0, 0, 0, 1, 1, 0, 1, 1, 0, 1, 0, 1, 0, 1
  5776,   6826, 1, 0.002769, 0.011449,        0,       0,       0,       0, 0, 0, 0, 0, 1, 1, 0, 1, 1, 0, 1, 0, 1, 0, 1
   659,   8329, 1,  0.00034,  0.00305,        0,    1600,       0,       0, 0, 0, 0, 0, 1, 1, 0, 1, 1, 0, 1, 0, 1, 0, 1
   659,   7051, 1,  0.00123,  0.01255,        0,    1863,       0,       0, 0, 0, 0, 0, 1, 1, 0, 1, 1, 0, 1, 0, 1, 0, 1
   659,   9239, 1,    6e-05,  0.00065,        0,    1435,       0,       0, 0, 0, 0, 0, 1, 1, 0, 1, 1, 0, 1, 0, 1, 0, 1
   659,   7960, 1,    6e-05,  0.00063,        0,    1534,       0,       0, 0, 0, 0, 0, 1, 1, 0, 1, 1, 0, 1, 0, 1, 0, 1
   659,   6233, 1,    6e-05,  0.00055,        0,    1764,       0,       0, 0, 0, 0, 0, 1, 1, 0, 1, 1, 0, 1, 0, 1, 0, 1
   659,   5416, 1,  0.00079,  0.00968,        0,    1369,       0,       0, 0, 0, 0, 0, 1, 1, 0, 1, 1, 0, 1, 0, 1, 0, 1
   659,   6798, 1,    7e-05,  0.00079,        0,       0,       0,       0, 0, 0, 0, 0, 1, 1, 0, 1, 1, 0, 1, 0, 1, 0, 1
   792,   3279, 1,        0, 0.000222,        0,     397,       0,       0, 0, 0, 0, 0, 1, 1, 0, 1, 1, 0, 1, 0, 1, 0, 1
  7563,    792, 1, 2.064178, 7.545333,        0,       0,       0,       0, 0, 0, 0, 0, 1, 1, 0, 1, 1, 0, 1, 0, 1, 0, 1
  7279,    792, 1, 0.153711, 0.482489,        0,       0,       0,       0, 0, 0, 0, 0, 1, 1, 0, 1, 1, 0, 1, 0, 1, 0, 1
  8335,    792, 1, 0.015809,  0.12368,        0,       0,       0,       0, 0, 0, 0, 0, 1, 1, 0, 1, 1, 0, 1, 0, 1, 0, 1
  2449,    792, 1, 0.057978, 0.363422,        0,       0,       0,       0, 0, 0, 0, 0, 1, 1, 0, 1, 1, 0, 1, 0, 1, 0, 1
  4665,    792, 1,   0.6932, 2.196889,        0,       0,       0,       0, 0, 0, 0, 0, 1, 1, 0, 1, 1, 0, 1, 0, 1, 0, 1
  4495,    792, 1, 0.560356, 2.395867,        0,       0,       0,       0, 0, 0, 0, 0, 1, 1, 0, 1, 1, 0, 1, 0, 1, 0, 1
  5416,   2267, 1,  0.00024,  0.00213,        0,     777,       0,       0, 0, 0, 0, 0, 1, 1, 0, 1, 1, 0, 1, 0, 1, 0, 1
  5416,   7637, 1,  0.00093,  0.00884,        0,    1303,       0,       0, 0, 0, 0, 0, 1, 1, 0, 1, 1, 0, 1, 0, 1, 0, 1
  8964,   2168, 1,        0, 0.000222,        0,     332,       0,       0, 0, 0, 0, 0, 1, 1, 0, 1, 1, 0, 1, 0, 1, 0, 1
  3659,   5996, 1,  0.00018,  0.00204,        0,    1797,       0,       0, 0, 0, 0, 0, 1, 1, 0, 1, 1, 0, 1, 0, 1, 0, 1
  5762,   5996, 1,  0.00018,  0.00208,        0,     777,       0,       0, 0, 0, 0, 0, 1, 1, 0, 1, 1, 0, 1, 0, 1, 0, 1
  3242,   5097, 1,        0, 0.000222,        0,       0,       0,       0, 0, 0, 0, 0, 1, 1, 0, 1, 1, 0, 1, 0, 1, 0, 1
  7563,   3242, 1,  0.02068, 0.093391,        0,       0,       0,       0, 0, 0, 0, 0, 1, 1, 0, 1, 1, 0, 1, 0, 1, 0, 1
  4427,   3242, 1, 0.777778,    7.408,        0,       0,       0,       0, 0, 0, 0, 0, 1, 1, 0, 1, 1, 0, 1, 0, 1, 0, 1
  3242,   7279, 1,  0.00884,  0.07292,        0,       0,       0,       0, 0, 0, 0, 0, 1, 1, 0, 1, 1, 0, 1, 0, 1, 0, 1
   271,   3242, 1, 0.131671, 8.295556,        0,       0,       0,       0, 0, 0, 0, 0, 1, 1, 0, 1, 1, 0, 1, 0, 1, 0, 1
  3242,   1611, 1, 0.082462, 0.568222,        0,       0,       0,       0, 0, 0, 0, 0, 1, 1, 0, 1, 1, 0, 1, 0, 1, 0, 1
  5097,   1611, 1,   0.0042,  0.02624,        0,       0,       0,       0, 0, 0, 0, 0, 1, 1, 0, 1, 1, 0, 1, 0, 1, 0, 1
  8181,   8179, 1,  0.00031,  0.00317,        0,    1271,       0,       0, 0, 0, 0, 0, 1, 1, 0, 1, 1, 0, 1, 0, 1, 0, 1
  8181,   7762, 1,  0.00043,  0.00498,        0,    1501,       0,       0, 0, 0, 0, 0, 1, 1, 0, 1, 1, 0, 1, 0, 1, 0, 1
  9025,   7762, 1,  0.00042,  0.00508,        0,    1731,       0,       0, 0, 0, 0, 0, 1, 1, 0, 1, 1, 0, 1, 0, 1, 0, 1
  7563,   4427, 1, 0.110671, 0.773067,        0,       0,       0,       0, 0, 0, 0, 0, 1, 1, 0, 1, 1, 0, 1, 0, 1, 0, 1
  7563,   7279, 1,  0.00912, 0.037609,        0,       0,       0,       0, 0, 0, 0, 0, 1, 1, 0, 1, 1, 0, 1, 0, 1, 0, 1
  7563,   8335, 1, 0.098049, 0.598711,        0,       0,       0,       0, 0, 0, 0, 0, 1, 1, 0, 1, 1, 0, 1, 0, 1, 0, 1
  7563,   5155, 1, 0.019031, 1.160356,        0,       0,       0,       0, 0, 0, 0, 0, 1, 1, 0, 1, 1, 0, 1, 0, 1, 0, 1
  7563,    271, 1, 0.024071, 0.915733,        0,       0,       0,       0, 0, 0, 0, 0, 1, 1, 0, 1, 1, 0, 1, 0, 1, 0, 1
  2449,   7563, 1, 1.484267, 4.479111,        0,       0,       0,       0, 0, 0, 0, 0, 1, 1, 0, 1, 1, 0, 1, 0, 1, 0, 1
  4665,   7563, 1, 0.011578, 0.063271,        0,       0,       0,       0, 0, 0, 0, 0, 1, 1, 0, 1, 1, 0, 1, 0, 1, 0, 1
  4495,   7563, 1, 0.654889, 1.839111,        0,       0,       0,       0, 0, 0, 0, 0, 1, 1, 0, 1, 1, 0, 1, 0, 1, 0, 1
  7563,   1611, 1, 0.022049,  0.10076,        0,       0,       0,       0, 0, 0, 0, 0, 1, 1, 0, 1, 1, 0, 1, 0, 1, 0, 1
  4427,   7279, 1, 0.459867, 2.604711,        0,       0,       0,       0, 0, 0, 0, 0, 1, 1, 0, 1, 1, 0, 1, 0, 1, 0, 1
  4427,   8335, 1, 2.320222,    6.088,        0,       0,       0,       0, 0, 0, 0, 0, 1, 1, 0, 1, 1, 0, 1, 0, 1, 0, 1
  4427,   5155, 1, 0.006369, 0.048089,        0,       0,       0,       0, 0, 0, 0, 0, 1, 1, 0, 1, 1, 0, 1, 0, 1, 0, 1
  4427,    271, 1, 0.006631,   0.0432,        0,       0,       0,       0, 0, 0, 0, 0, 1, 1, 0, 1, 1, 0, 1, 0, 1, 0, 1
  2449,   4427, 1, 2.567244, 6.767111,        0,       0,       0,       0, 0, 0, 0, 0, 1, 1, 0, 1, 1, 0, 1, 0, 1, 0, 1
  4665,   4427, 1, 0.309889, 1.214178,        0,       0,       0,       0, 0, 0, 0, 0, 1, 1, 0, 1, 1, 0, 1, 0, 1, 0, 1
  4495,   4427, 1, 0.009191, 0.043289,        0,       0,       0,       0, 0, 0, 0, 0, 1, 1, 0, 1, 1, 0, 1, 0, 1, 0, 1
  4427,   1611, 1, 0.691022, 5.239556,        0,       0,       0,       0, 0, 0, 0, 0, 1, 1, 0, 1, 1, 0, 1, 0, 1, 0, 1
  5210,   1445, 1, 0.002669,  0.01718,        0,       0,       0,       0, 0, 0, 0, 0, 1, 1, 0, 1, 1, 0, 1, 0, 1, 0, 1
  8179,   5509, 1,  0.00074,  0.00694,        0,    1271,       0,       0, 0, 0, 0, 0, 1, 1, 0, 1, 1, 0, 1, 0, 1, 0, 1
  8179,   7762, 1,  0.00068,    0.008,        0,    1567,       0,       0, 0, 0, 0, 0, 1, 1, 0, 1, 1, 0, 1, 0, 1, 0, 1
  7279,   4014, 1,        0, 0.000222,        0,       0,       0,       0, 0, 0, 0, 0, 1, 1, 0, 1, 1, 0, 1, 0, 1, 0, 1
  8335,   7279, 1,  0.00524, 0.030631,        0,       0,       0,       0, 0, 0, 0, 0, 1, 1, 0, 1, 1, 0, 1, 0, 1, 0, 1
  5155,   7279, 1,  0.33932, 3.814667,        0,       0,       0,       0, 0, 0, 0, 0, 1, 1, 0, 1, 1, 0, 1, 0, 1, 0, 1
   271,   7279, 1,  0.22696, 2.614933,        0,       0,       0,       0, 0, 0, 0, 0, 1, 1, 0, 1, 1, 0, 1, 0, 1, 0, 1
  2449,   7279, 1, 0.190671, 0.719378,        0,       0,       0,       0, 0, 0, 0, 0, 1, 1, 0, 1, 1, 0, 1, 0, 1, 0, 1
  4665,   7279, 1, 1.050222, 2.105556,        0,       0,       0,       0, 0, 0, 0, 0, 1, 1, 0, 1, 1, 0, 1, 0, 1, 0, 1
  4495,   7279, 1, 1.431644, 4.294578,        0,       0,       0,       0, 0, 0, 0, 0, 1, 1, 0, 1, 1, 0, 1, 0, 1, 0, 1
  1611,   7279, 1, 0.022618, 0.161089,        0,       0,       0,       0, 0, 0, 0, 0, 1, 1, 0, 1, 1, 0, 1, 0, 1, 0, 1
  5509,   1579, 1,  0.00088,  0.00895,        0,    1830,       0,       0, 0, 0, 0, 0, 1, 1, 0, 1, 1, 0, 1, 0, 1, 0, 1
  8335,   1531, 1,        0, 0.000222,        0,     319,       0,       0, 0, 0, 0, 0, 1, 1, 0, 1, 1, 0, 1, 0, 1, 0, 1
  5155,   8335, 1, 1.827778,    7.768,        0,       0,       0,       0, 0, 0, 0, 0, 1, 1, 0, 1, 1, 0, 1, 0, 1, 0, 1
  2449,   8335, 1, 0.020849, 0.153382,        0,       0,       0,       0, 0, 0, 0, 0, 1, 1, 0, 1, 1, 0, 1, 0, 1, 0, 1
  4665,   8335, 1, 0.156231, 0.656267,        0,       0,       0,       0, 0, 0, 0, 0, 1, 1, 0, 1, 1, 0, 1, 0, 1, 0, 1
  4495,   8335, 1, 0.176498, 0.891556,        0,       0,       0,       0, 0, 0, 0, 0, 1, 1, 0, 1, 1, 0, 1, 0, 1, 0, 1
  7762,   2268, 1,  0.00067,  0.00777,        0,    1633,       0,       0, 0, 0, 0, 0, 1, 1, 0, 1, 1, 0, 1, 0, 1, 0, 1
  5155,    271, 1, 0.004578, 0.061889,        0,       0,       0,       0, 0, 0, 0, 0, 1, 1, 0, 1, 1, 0, 1, 0, 1, 0, 1
  5155,   2908, 1,  0.01348,  0.05932,        0,       0,       0,       0, 0, 0, 0, 0, 1, 1, 0, 1, 1, 0, 1, 0, 1, 0, 1
  4665,   5155, 1, 0.066391, 2.802622,        0,       0,       0,       0, 0, 0, 0, 0, 1, 1, 0, 1, 1, 0, 1, 0, 1, 0, 1
  4495,   5155, 1, 0.194258, 2.220444,        0,       0,       0,       0, 0, 0, 0, 0, 1, 1, 0, 1, 1, 0, 1, 0, 1, 0, 1
  5155,   1611, 1, 0.008151, 0.072822,        0,       0,       0,       0, 0, 0, 0, 0, 1, 1, 0, 1, 1, 0, 1, 0, 1, 0, 1
   271,   2908, 1, 0.016502, 0.055382,        0,       0,       0,       0, 0, 0, 0, 0, 1, 1, 0, 1, 1, 0, 1, 0, 1, 0, 1
  4665,    271, 1,   0.0806, 4.633778,        0,       0,       0,       0, 0, 0, 0, 0, 1, 1, 0, 1, 1, 0, 1, 0, 1, 0, 1
  4495,    271, 1, 0.831556, 3.729644,        0,       0,       0,       0, 0, 0, 0, 0, 1, 1, 0, 1, 1, 0, 1, 0, 1, 0, 1
   271,   1611, 1, 0.007951, 0.074151,        0,       0,       0,       0, 0, 0, 0, 0, 1, 1, 0, 1, 1, 0, 1, 0, 1, 0, 1
  1579,   5848, 1,   0.0004,  0.00362,        0,    1633,       0,       0, 0, 0, 0, 0, 1, 1, 0, 1, 1, 0, 1, 0, 1, 0, 1
  7051,   8847, 1,  0.00015,  0.00177,        0,    1600,       0,       0, 0, 0, 0, 0, 1, 1, 0, 1, 1, 0, 1, 0, 1, 0, 1
  5776,   8229, 1,        0, 0.000222,        0,       0,       0,       0, 0, 0, 0, 0, 1, 1, 0, 1, 1, 0, 1, 0, 1, 0, 1
   317,   6233, 1,    2e-05,  0.00022,        0,    1698,       0,       0, 0, 0, 0, 0, 1, 1, 0, 1, 1, 0, 1, 0, 1, 0, 1
  4665,   2449, 1,  0.02864, 0.172902,        0,       0,       0,       0, 0, 0, 0, 0, 1, 1, 0, 1, 1, 0, 1, 0, 1, 0, 1
  2449,   4495, 1, 0.017591,   0.1404,        0,       0,       0,       0, 0, 0, 0, 0, 1, 1, 0, 1, 1, 0, 1, 0, 1, 0, 1
  4665,   4495, 1,  0.00752, 0.031711,        0,       0,       0,       0, 0, 0, 0, 0, 1, 1, 0, 1, 1, 0, 1, 0, 1, 0, 1
  1611,   8420, 1,        0, 0.000222,        0,     566,       0,       0, 0, 0, 0, 0, 1, 1, 0, 1, 1, 0, 1, 0, 1, 0, 1
  7829,   1968, 1, 0.519194, 5.108058,        0,       0,       0,       0, 0, 0, 0, 0, 1, 1, 0, 1, 1, 0, 1, 0, 1, 0, 1
  1815,    792, 1, 1.467822, 7.764888,        0,       0,       0,       0, 0, 0, 0, 0, 1, 1, 0, 1, 1, 0, 1, 0, 1, 0, 1
  7829,   6826, 1,  0.00078, 0.064311,        0,       0,       0,       0, 0, 0, 0, 0, 1, 1, 0, 1, 1, 0, 1, 0, 1, 0, 1
  5210,    792, 1,  0.00855,  0.08972,        0,       0,       0,       0, 0, 0, 0, 0, 1, 1, 0, 1, 1, 0, 1, 0, 1, 0, 1
  1445,    792, 1,  0.00223,  0.04836,        0,       0,       0,       0, 0, 0, 0, 0, 1, 1, 0, 1, 1, 0, 1, 0, 1, 0, 1
  5210,   7279, 1, 0.230542, 1.197733,        0,       0,       0,       0, 0, 0, 0, 0, 1, 1, 0, 1, 1, 0, 1, 0, 1, 0, 1
  5210,   8335, 1,  0.02284,   0.2644,        0,       0,       0,       0, 0, 0, 0, 0, 1, 1, 0, 1, 1, 0, 1, 0, 1, 0, 1
  5210,   2449, 1,  0.08537, 0.736798,        0,       0,       0,       0, 0, 0, 0, 0, 1, 1, 0, 1, 1, 0, 1, 0, 1, 0, 1
  5210,   4665, 1, 1.402768, 3.640289,        0,       0,       0,       0, 0, 0, 0, 0, 1, 1, 0, 1, 1, 0, 1, 0, 1, 0, 1
  5210,   4495, 1, 1.050227, 4.450207,        0,       0,       0,       0, 0, 0, 0, 0, 1, 1, 0, 1, 1, 0, 1, 0, 1, 0, 1
  1445,   7279, 1, 0.518622, 2.317689,        0,       0,       0,       0, 0, 0, 0, 0, 1, 1, 0, 1, 1, 0, 1, 0, 1, 0, 1
  1445,   8335, 1, 0.047769, 0.554178,        0,       0,       0,       0, 0, 0, 0, 0, 1, 1, 0, 1, 1, 0, 1, 0, 1, 0, 1
  7829,   5776, 1,  0.02436, 0.270151,        0,       0,       0,       0, 0, 0, 0, 0, 1, 1, 0, 1, 1, 0, 1, 0, 1, 0, 1
  1445,   2449, 1, 0.188099, 1.291901,        0,       0,       0,       0, 0, 0, 0, 0, 1, 1, 0, 1, 1, 0, 1, 0, 1, 0, 1
  1445,   4665, 1, 2.466323,  7.26343,        0,       0,       0,       0, 0, 0, 0, 0, 1, 1, 0, 1, 1, 0, 1, 0, 1, 0, 1
0 / END OF BRANCH DATA, BEGIN TRANSFORMER DATA
  9024,   6542, 0, 1, 1, 1, 1, 0, 0, 2, '            ', 1, 1, 1, 0, 1, 0, 1, 0, 1, '            '
0.000742, 0.067219, 100
0.994359, 0,     0,       0,       0,       0, 0, 0, 1.1, 0.9, 1.1, 0.9, 33, 0, 0, 0, 0
    1, 0
  9024,   6542, 0, 2, 1, 1, 1, 0, 0, 2, '            ', 1, 1, 1, 0, 1, 0, 1, 0, 1, '            '
0.000793, 0.06388, 100
0.998418, 0,     0,       0,       0,       0, 0, 0, 1.1, 0.9, 1.1, 0.9, 33, 0, 0, 0, 0
    1, 0
  6069,   9192, 0, 1, 1, 1, 1, 0, 0, 2, '            ', 1, 1, 1, 0, 1, 0, 1, 0, 1, '            '
0.000609, 0.046809, 100
0.933053, 0,     0,     711,       0,       0, 0, 0, 1.1, 0.9, 1.1, 0.9, 33, 0, 0, 0, 0
    1, 0
  6069,   1968, 0, 1, 1, 1, 1, 0, 0, 2, '            ', 1, 1, 1, 0, 1, 0, 1, 0, 1, '            '
0.00059, 0.04521, 100
0.91223, 0,     0,     711,       0,       0, 0, 0, 1.1, 0.9, 1.1, 0.9, 33, 0, 0, 0, 0
    1, 0
  8574,   2299, 0, 1, 1, 1, 1, 0, 0, 2, '            ', 1, 1, 1, 0, 1, 0, 1, 0, 1, '            '
0.000559, 0.039982, 100
0.919523, 0,     0,       0,       0,       0, 0, 0, 1.1, 0.9, 1.1, 0.9, 33, 0, 0, 0, 0
    1, 0
  8574,   5587, 0, 1, 1, 1, 1, 0, 0, 2, '            ', 1, 1, 1, 0, 1, 0, 1, 0, 1, '            '
0.000537, 0.045312, 100
0.948262, 0,     0,       0,       0,       0, 0, 0, 1.1, 0.9, 1.1, 0.9, 33, 0, 0, 0, 0
    1, 0
  4929,   1815, 0, 1, 1, 1, 1, 0, 0, 2, '            ', 1, 1, 1, 0, 1, 0, 1, 0, 1, '            '
0.000889, 0.061549, 100
0.996867, 0,     0,       0,       0,       0, 0, 0, 1.1, 0.9, 1.1, 0.9, 33, 0, 0, 0, 0
    1, 0
  6704,   4586, 0, 1, 1, 1, 1, 0, 0, 2, '            ', 1, 1, 1, 0, 1, 0, 1, 0, 1, '            '
0.000586, 0.049031, 100
0.923407, 0,     0,     678,       0,       0, 0, 0, 1.1, 0.9, 1.1, 0.9, 33, 0, 0, 0, 0
    1, 0
  2441,   3506, 0, 1, 1, 1, 1, 0, 0, 2, '            ', 1, 1, 1, 0, 1, 0, 1, 0, 1, '            '
0.000417, 0.047801, 100
0.952413, 0,     0,     678,       0,       0, 0, 0, 1.1, 0.9, 1.1, 0.9, 33, 0, 0, 0, 0
    1, 0
  1367,   6826, 0, 1, 1, 1, 1, 0, 0, 2, '            ', 1, 1, 1, 0, 1, 0, 1, 0, 1, '            '
0.000755, 0.05143, 100
0.924009, 0,     0,       0,       0,       0, 0, 0, 1.1, 0.9, 1.1, 0.9, 33, 0, 0, 0, 0
    1, 0
  1676,    228, 0, 1, 1, 1, 1, 0, 0, 2, '            ', 1, 1, 1, 0, 1, 0, 1, 0, 1, '            '
0.000733, 0.052399, 100
0.934986, 0,     0,     678,       0,       0, 0, 0, 1.1, 0.9, 1.1, 0.9, 33, 0, 0, 0, 0
    1, 0
   659,   3279, 0, 1, 1, 1, 1, 0, 0, 2, '            ', 1, 1, 1, 0, 1, 0, 1, 0, 1, '            '
0.00089, 0.048632, 100
0.987002, 0,     0,       0,       0,       0, 0, 0, 1.1, 0.9, 1.1, 0.9, 33, 0, 0, 0, 0
    1, 0
  7180,   2168, 0, 1, 1, 1, 1, 0, 0, 2, '            ', 1, 1, 1, 0, 1, 0, 1, 0, 1, '            '
0.000581, 0.043111, 100
0.924038, 0,     0,     678,       0,       0, 0, 0, 1.1, 0.9, 1.1, 0.9, 33, 0, 0, 0, 0
    1, 0
  6833,   8964, 0, 1, 1, 1, 1, 0, 0, 2, '            ', 1, 1, 1, 0, 1, 0, 1, 0, 1, '            '
0.000579, 0.043272, 100
0.901005, 0,     0,     711,       0,       0, 0, 0, 1.1, 0.9, 1.1, 0.9, 33, 0, 0, 0, 0
    1, 0
  3659,   3242, 0, 1, 1, 1, 1, 0, 0, 2, '            ', 1, 1, 1, 0, 1, 0, 1, 0, 1, '            '
0.000586, 0.049031, 100
0.923407, 0,     0,     711,       0,       0, 0, 0, 1.1, 0.9, 1.1, 0.9, 33, 0, 0, 0, 0
    1, 0
  8181,   4427, 0, 1, 1, 1, 1, 0, 0, 2, '            ', 1, 1, 1, 0, 1, 0, 1, 0, 1, '            '
0.000559, 0.049192, 100
0.924009, 0,     0,       0,       0,       0, 0, 0, 1.1, 0.9, 1.1, 0.9, 33, 0, 0, 0, 0
    1, 0
  9025,   7563, 0, 1, 1, 1, 1, 0, 0, 2, '            ', 1, 1, 1, 0, 1, 0, 1, 0, 1, '            '
0.000573, 0.051129, 100
0.934986, 0,     0,     678,       0,       0, 0, 0, 1.1, 0.9, 1.1, 0.9, 33, 0, 0, 0, 0
    1, 0
  2267,   5210, 0, 1, 1, 1, 1, 0, 0, 2, '            ', 1, 1, 1, 0, 1, 0, 1, 0, 1, '            '
0.000417, 0.039229, 100
0.967059, 0,     0,     744,       0,       0, 0, 0, 1.1, 0.9, 1.1, 0.9, 33, 0, 0, 0, 0
    1, 0
  8179,   7279, 0, 1, 1, 1, 1, 0, 0, 2, '            ', 1, 1, 1, 0, 1, 0, 1, 0, 1, '            '
0.000716, 0.04371, 100
0.934986, 0,     0,       0,       0,       0, 0, 0, 1.1, 0.9, 1.1, 0.9, 33, 0, 0, 0, 0
    1, 0
  5509,   8335, 0, 1, 1, 1, 1, 0, 0, 2, '            ', 1, 1, 1, 0, 1, 0, 1, 0, 1, '            '
0.00059, 0.045662, 100
0.955958, 0,     0,       0,       0,       0, 0, 0, 1.1, 0.9, 1.1, 0.9, 33, 0, 0, 0, 0
    1, 0
  5509,   1531, 0, 1, 1, 1, 1, 0, 0, 2, '            ', 1, 1, 1, 0, 1, 0, 1, 0, 1, '            '
0.000603, 0.050959, 100
0.968125, 0,     0,       0,       0,       0, 0, 0, 1.1, 0.9, 1.1, 0.9, 33, 0, 0, 0, 0
    1, 0
  7762,   5155, 0, 1, 1, 1, 1, 0, 0, 2, '            ', 1, 1, 1, 0, 1, 0, 1, 0, 1, '            '
0.000591, 0.045153, 100
0.918868, 0,     0,       0,       0,       0, 0, 0, 1.1, 0.9, 1.1, 0.9, 33, 0, 0, 0, 0
    1, 0
  7762,    271, 0, 1, 1, 1, 1, 0, 0, 2, '            ', 1, 1, 1, 0, 1, 0, 1, 0, 1, '            '
0.0006, 0.047778, 100
0.948976, 0,     0,     711,       0,       0, 0, 0, 1.1, 0.9, 1.1, 0.9, 33, 0, 0, 0, 0
    1, 0
  8329,   1445, 0, 1, 1, 1, 1, 0, 0, 2, '            ', 1, 1, 1, 0, 1, 0, 1, 0, 1, '            '
0.000802, 0.05727, 100
0.967021, 0,     0,       0,       0,       0, 0, 0, 1.1, 0.9, 1.1, 0.9, 33, 0, 0, 0, 0
    1, 0
  8329,   1445, 0, 2, 1, 1, 1, 0, 0, 2, '            ', 1, 1, 1, 0, 1, 0, 1, 0, 1, '            '
0.000823, 0.056059, 100
0.967021, 0,     0,       0,       0,       0, 0, 0, 1.1, 0.9, 1.1, 0.9, 33, 0, 0, 0, 0
    1, 0
  2268,   2908, 0, 1, 1, 1, 1, 0, 0, 2, '            ', 1, 1, 1, 0, 1, 0, 1, 0, 1, '            '
0.000523, 0.050352, 100
0.934622, 0,     0,     744,       0,       0, 0, 0, 1.1, 0.9, 1.1, 0.9, 33, 0, 0, 0, 0
    1, 0
  8847,   5776, 0, 1, 1, 1, 1, 0, 0, 2, '            ', 1, 1, 1, 0, 1, 0, 1, 0, 1, '            '
0.000682, 0.049638, 100
0.913034, 0,     0,       0,       0,       0, 0, 0, 1.1, 0.9, 1.1, 0.9, 33, 0, 0, 0, 0
    1, 0
  8847,   8103, 0, 1, 1, 1, 1, 0, 0, 2, '            ', 1, 1, 1, 0, 1, 0, 1, 0, 1, '            '
0.00099, 0.04736, 100
1.01215, 0,     0,       0,       0,       0, 0, 0, 1.1, 0.9, 1.1, 0.9, 33, 0, 0, 0, 0
    1, 0
   317,   2449, 0, 1, 1, 1, 1, 0, 0, 2, '            ', 1, 1, 1, 0, 1, 0, 1, 0, 1, '            '
0.000616, 0.048759, 100
0.933053, 0,     0,     678,       0,       0, 0, 0, 1.1, 0.9, 1.1, 0.9, 33, 0, 0, 0, 0
    1, 0
  7637,   8581, 0, 1, 1, 1, 1, 0, 0, 2, '            ', 1, 1, 1, 0, 1, 0, 1, 0, 1, '            '
9e-05, 0.015499, 100
    0, 0, -0.428189,    1698,       0,       0, 0, 0, 1.1, 0.9, 1.1, 0.9, 33, 0, 0, 0, 0
    1, 0
  5848,   7526, 0, 1, 1, 1, 1, 0, 0, 2, '            ', 1, 1, 1, 0, 1, 0, 1, 0, 1, '            '
9e-05, 0.00963, 100
    0, 0, 0.178581,    1698,       0,       0, 0, 0, 1.1, 0.9, 1.1, 0.9, 33, 0, 0, 0, 0
    1, 0
    89,   4495, 0, 1, 1, 1, 1, 0, 0, 2, '            ', 1, 1, 1, 0, 1, 0, 1, 0, 1, '            '
0.000664, 0.045609, 100
0.924009, 0,     0,       0,       0,       0, 0, 0, 1.1, 0.9, 1.1, 0.9, 33, 0, 0, 0, 0
    1, 0
  2520,   4665, 0, 1, 1, 1, 1, 0, 0, 2, '            ', 1, 1, 1, 0, 1, 0, 1, 0, 1, '            '
0.000649, 0.044862, 100
0.933053, 0,     0,     711,       0,       0, 0, 0, 1.1, 0.9, 1.1, 0.9, 33, 0, 0, 0, 0
    1, 0
  5996,   8420, 0, 1, 1, 1, 1, 0, 0, 2, '            ', 1, 1, 1, 0, 1, 0, 1, 0, 1, '            '
0.00067, 0.04326, 100
0.923407, 0,     0,     744,       0,       0, 0, 0, 1.1, 0.9, 1.1, 0.9, 33, 0, 0, 0, 0
    1, 0
  2154,   5996, 0, 1, 1, 1, 1, 0, 0, 2, '            ', 1, 1, 1, 0, 1, 0, 1, 0, 1, '            '
9e-05, 0.009901, 100
    0, 0, -0.153178,    1698,       0,       0, 0, 0, 1.1, 0.9, 1.1, 0.9, 33, 0, 0, 0, 0
    1, 0
0 / END OF TRANSFORMER DATA, BEGIN AREA DATA
0 / END OF AREA DATA, BEGIN TWO-TERMINAL DC DATA
0 / END OF TWO-TERMINAL DC DATA, BEGIN VOLTAGE SOURCE CONVERTER DATA
0 / END OF VOLTAGE SOURCE CONVERTER DATA, BEGIN IMPEDANCE CORRECTION DATA
0 / END OF IMPEDANCE CORRECTION DATA, BEGIN MULTI-TERMINAL DC DATA
0 / END OF MULTI-TERMINAL DC DATA, BEGIN MULTI-SECTION LINE DATA
0 / END OF MULTI-SECTION LINE DATA, BEGIN ZONE DATA
0 / END OF ZONE DATA, BEGIN INTER-AREA TRANSFER DATA
0 / END OF INTER-AREA TRANSFER DATA, BEGIN OWNER DATA
0 / END OF OWNER DATA, BEGIN FACTS CONTROL DEVICE DATA
0 / END OF FACTS CONTROL DEVICE DATA, BEGIN SWITCHED SHUNT DATA
0 / END OF SWITCHED SHUNT DATA, BEGIN GNE DEVICE DATA
0 / END OF GNE DEVICE DATA, BEGIN INDUCTION MACHINE DATA
0 / END OF INDUCTION MACHINE DATA
Q
